MastesRls/DataRaw/IEEE14.raw
0,   100.00
IEEE Test System, 14 Buses, 5 Generators          / PSS/E-30.0    
Created by College of Electrical Engineering, Zhejiang University, Mon 27 Jun 2011 14:39:13
    1,  ' Bus-1  ',   1.0000,    3,    0,    0,    1,    1,    1.06000,    0.000000,    1
    2,  ' Bus-2  ',   1.0000,    2,    0,    0,    1,    1,    1.04500,    -4.98259,    1
    3,  ' Bus-3  ',   1.0000,    2,    0,    0,    1,    1,    1.01000,    -12.7251,    1
    4,  ' Bus-4  ',   1.0000,    1,    0,    0,    1,    1,    1.01767,    -10.3129,    1
    5,  ' Bus-5  ',   1.0000,    1,    0,    0,    1,    1,    1.01951,    -8.77385,    1
    6,  ' Bus-6  ',   1.0000,    2,    0,    0,    1,    1,    1.07000,    -14.2209,    1
    7,  ' Bus-7  ',   1.0000,    1,    0,    0,    1,    1,    1.06152,    -13.3596,    1
    8,  ' Bus-8  ',   1.0000,    2,    0,    0,    1,    1,    1.09000,    -13.3596,    1
    9,  ' Bus-9  ',   1.0000,    1,    0,    19,   1,    1,    1.05593,    -14.9385,    1
   10,  ' Bus-10 ',   1.0000,    1,    0,    0,    1,    1,    1.05098,    -15.0973,    1
   11,  ' Bus-11 ',   1.0000,    1,    0,    0,    1,    1,    1.05691,    -14.7906,    1
   12,  ' Bus-12 ',   1.0000,    1,    0,    0,    1,    1,    1.05519,    -15.0756,    1
   13,  ' Bus-13 ',   1.0000,    1,    0,    0,    1,    1,    1.05038,    -15.1563,    1
   14,  ' Bus-14 ',   1.0000,    1,    0,    0,    1,    1,    1.03553,    -16.0336,    1
0 / END OF BUS DATA, BEGIN LOAD DATA
    2,    '1',    1,    1,    1,    21.7,    12.7,    0,    0,    0,    0,    1
    3,    '1',    1,    1,    1,    94.2,    19.0,    0,    0,    0,    0,    1
    4,    '1',    1,    1,    1,    47.8,    -3.9,    0,    0,    0,    0,    1
    5,    '1',    1,    1,    1,     7.6,     1.6,    0,    0,    0,    0,    1
    6,    '1',    1,    1,    1,    11.2,     7.5,    0,    0,    0,    0,    1
    9,    '1',    1,    1,    1,    29.5,    16.6,    0,    0,    0,    0,    1
   10,    '1',    1,    1,    1,     9.0,     5.8,    0,    0,    0,    0,    1
   11,    '1',    1,    1,    1,     3.5,     1.8,    0,    0,    0,    0,    1
   12,    '1',    1,    1,    1,     6.1,     1.6,    0,    0,    0,    0,    1
   13,    '1',    1,    1,    1,    13.5,     5.8,    0,    0,    0,    0,    1
   14,    '1',    1,    1,    1,    14.9,     5.0,    0,    0,    0,    0,    1
0 / END OF LOAD DATA, BEGIN GENERATOR DATA    
    1,    '1',    232.4,   -16.5,     100,    -50,    1.060,    0,    100,    0,    1,    0,    0,    1,    1,    100,    9999,    -9999,    1,    1
    2,    '1',     40.0,    43.6,      50,    -40,    1.045,    0,    100,    0,    1,    0,    0,    1,    1,    100,    9999,    -9999,    1,    1
    3,    '1',      0.0,    25.1,      40,      0,    1.010,    0,    100,    0,    1,    0,    0,    1,    1,    100,    9999,    -9999,    1,    1
    6,    '1',      0.0,    12.7,      24,     -6,    1.070,    0,    100,    0,    1,    0,    0,    1,    1,    100,    9999,    -9999,    1,    1
    8,    '1',      0.0,    17.6,      24,     -6,    1.090,    0,    100,    0,    1,    0,    0,    1,    1,    100,    9999,    -9999,    1,    1
0 / END OF GENERATOR DATA, BEGIN BRANCH DATA
    1,    2,     '1',    0.01938,    0.05917,    0.0528,    0,    0,    0,    0,    0,    0,    0,    1,    0,    1,    1
    1,    5,     '1',    0.05403,    0.22304,    0.0492,    0,    0,    0,    0,    0,    0,    0,    1,    0,    1,    1
    2,    3,     '1',    0.04699,    0.19797,    0.0438,    0,    0,    0,    0,    0,    0,    0,    1,    0,    1,    1
    2,    4,     '1',    0.05811,    0.17632,    0.0340,    0,    0,    0,    0,    0,    0,    0,    1,    0,    1,    1
    2,    5,     '1',    0.05695,    0.17388,    0.0346,    0,    0,    0,    0,    0,    0,    0,    1,    0,    1,    1
    3,    4,     '1',    0.06701,    0.17103,    0.0128,    0,    0,    0,    0,    0,    0,    0,    1,    0,    1,    1
    4,    5,     '1',    0.01335,    0.04211,    0.0000,    0,    0,    0,    0,    0,    0,    0,    1,    0,    1,    1
    6,   11,     '1',    0.09498,    0.19890,    0.0000,    0,    0,    0,    0,    0,    0,    0,    1,    0,    1,    1
    6,   12,     '1',    0.12291,    0.25581,    0.0000,    0,    0,    0,    0,    0,    0,    0,    1,    0,    1,    1
    6,   13,     '1',    0.06615,    0.13027,    0.0000,    0,    0,    0,    0,    0,    0,    0,    1,    0,    1,    1
    7,    8,     '1',    0.00000,    0.17615,    0.0000,    0,    0,    0,    0,    0,    0,    0,    1,    0,    1,    1
    7,    9,     '1',    0.00000,    0.11001,    0.0000,    0,    0,    0,    0,    0,    0,    0,    1,    0,    1,    1
    9,   10,     '1',    0.03181,    0.08450,    0.0000,    0,    0,    0,    0,    0,    0,    0,    1,    0,    1,    1
    9,   14,     '1',    0.12711,    0.27038,    0.0000,    0,    0,    0,    0,    0,    0,    0,    1,    0,    1,    1
   10,   11,     '1',    0.08205,    0.19207,    0.0000,    0,    0,    0,    0,    0,    0,    0,    1,    0,    1,    1
   12,   13,     '1',    0.22092,    0.19988,    0.0000,    0,    0,    0,    0,    0,    0,    0,    1,    0,    1,    1
   13,   14,     '1',    0.17093,    0.34802,    0.0000,    0,    0,    0,    0,    0,    0,    0,    1,    0,    1,    1
0 / END OF BRANCH DATA, BEGIN TRANSFORMER DATA
4,    7,    0,'1',1,1,1,    0,    0,    2,    '        ',1,    1,    1
    0,    0.20912,    100
    0.978,    0,    0,    0,    0,    0,    0,    0,    1.1,    0.9,    1.1,    0.9,    33,    0,    0,    0
    1,    0
4,    9,    0,'1',1,1,1,    0,    0,    2,    '        ',1,    1,    1
    0,    0.55618,    100
    0.969,    0,    0,    0,    0,    0,    0,    0,    1.1,    0.9,    1.1,    0.9,    33,    0,    0,    0
    1,    0
5,    6,    0,'1',1,1,1,    0,    0,    2,    '        ',1,    1,    1
    0,    0.25202,    100
    0.932,    0,    0,    0,    0,    0,    0,    0,    1.1,    0.9,    1.1,    0.9,    33,    0,    0,    0
    1,    0
0 / END OF TRANSFORMER DATA, BEGIN AREA DATA
0 / END OF TRANSFORMER DATA, BEGIN AREA DATA
0 / END OF AREA DATA, BEGIN TWO-TERMINAL DC DATA
0 / END OF TWO-TERMINAL DC DATA, BEGIN VSC DC LINE DATA
0 / END OF VSC DC LINE DATA, BEGIN SWITCHED SHUNT DATA
0 / END OF SWITCHED SHUNT DATA, BEGIN IMPEDANCE CORRECTION DATA
0 / END OF IMPEDANCE CORRECTION DATA, BEGIN MULTI-TERMINAL DC DATA
0 / END OF MULTI-TERMINAL DC DATA, BEGIN MULTI-SECTION LINE DATA
0 / END OF MULTI-SECTION LINE DATA, BEGIN ZONE DATA
0 / END OF ZONE DATA, BEGIN INTER-AREA TRANSFER DATA
0 / END OF INTER-AREA TRANSFER DATA, BEGIN OWNER DATA
0 / END OF OWNER DATA, BEGIN FACTS DEVICE DATA
0 / END OF FACTS DEVICE DATA
